tests/data/short_circuit/floating-ground-edge-case/sc-sparse-matrix-error/input.json
{
  "version": "1.0",
  "type": "input",
  "is_batch": false,
  "attributes": {},
  "data": {
    "node": [
      {"id": 2, "u_rated": 10000},
      {"id": 4, "u_rated": 100}
    ],
    "transformer": [
      {"id": 3, "from_node": 2, "to_node": 4, "from_status": 1, "to_status": 1, "u1": 10000, "u2": 100, "sn": 100000, "uk": 0.10000000000000001, "pk": 1000, "i0": 0, "p0": 0, "winding_from": 1, "winding_to": 0, "clock": 0, "tap_side": 0, "tap_pos": -1, "tap_min": -10, "tap_max": 10, "tap_nom": 0, "tap_size": 100, "r_grounding_from": 0, "x_grounding_from": 0, "r_grounding_to": 0, "x_grounding_to": 0}
    ],
    "source": [
      {"id": 1, "node": 2, "status": 1, "u_ref": 1, "sk": 10000000000, "rx_ratio": 0.10000000000000001, "z01_ratio": 1}
    ],
    "fault": [
      {"id": 11, "status": 1, "fault_type": 2, "fault_phase": 4, "fault_object": 4, "r_f": 0, "x_f": 0}
    ]
  }
}